# generated using pymatgen
data_Li3Y3ZrO8
_symmetry_space_group_name_H-M   'P 1'
_cell_length_a   6.18796728
_cell_length_b   6.18796728
_cell_length_c   12.32445996
_cell_angle_alpha   138.56449932
_cell_angle_beta   138.56449932
_cell_angle_gamma   60.45111566
_symmetry_Int_Tables_number   1
_chemical_formula_structural   Li3Y3ZrO8
_chemical_formula_sum   'Li3 Y3 Zr1 O8'
_cell_volume   204.101699571
_cell_formula_units_Z   1
loop_
 _symmetry_equiv_pos_site_id
 _symmetry_equiv_pos_as_xyz
  1  'x, y, z'
loop_
 _atom_site_type_symbol
 _atom_site_label
 _atom_site_symmetry_multiplicity
 _atom_site_fract_x
 _atom_site_fract_y
 _atom_site_fract_z
 _atom_site_occupancy
  Li  Li1  1  0.256747  0.756747  0.256747  1
  Li  Li2  1  0.500000  0.500000  0.500000  1
  Li  Li3  1  0.243253  0.743253  0.743253  1
  Y  Y4  1  0.747029  0.247029  0.247029  1
  Y  Y5  1  0.000000  0.000000  0.500000  1
  Y  Y6  1  0.752971  0.252971  0.752971  1
  Zr  Zr7  1  0.000000  0.000000  0.000000  1
  O  O8  1  0.001047  0.451122  0.257275  1
  O  O9  1  0.513502  0.063427  0.257275  1
  O  O10  1  0.204503  0.204503  0.000000  1
  O  O11  1  0.795497  0.795497  0.000000  1
  O  O12  1  0.214115  0.214115  0.500000  1
  O  O13  1  0.785885  0.785885  0.500000  1
  O  O14  1  0.548878  0.998953  0.742725  1
  O  O15  1  0.936573  0.486498  0.742725  1
