# generated using pymatgen
data_Li3Y3ZrO8
_symmetry_space_group_name_H-M   'P 1'
_cell_length_a   6.23011256
_cell_length_b   10.69343040
_cell_length_c   6.12722285
_cell_angle_alpha   90.00000000
_cell_angle_beta   90.00000000
_cell_angle_gamma   90.00000000
_symmetry_Int_Tables_number   1
_chemical_formula_structural   Li3Y3ZrO8
_chemical_formula_sum   'Li6 Y6 Zr2 O16'
_cell_volume   408.203399142
_cell_formula_units_Z   2
loop_
 _symmetry_equiv_pos_site_id
 _symmetry_equiv_pos_as_xyz
  1  'x, y, z'
loop_
 _atom_site_type_symbol
 _atom_site_label
 _atom_site_symmetry_multiplicity
 _atom_site_fract_x
 _atom_site_fract_y
 _atom_site_fract_z
 _atom_site_occupancy
  Li  Li1  1  0.750000  0.250000  0.256747  1
  Li  Li2  1  0.500000  0.500000  0.500000  1
  Li  Li3  1  0.250000  0.250000  0.743253  1
  Li  Li4  1  0.250000  0.750000  0.256747  1
  Li  Li5  1  0.000000  0.000000  0.500000  1
  Li  Li6  1  0.750000  0.750000  0.743253  1
  Y  Y7  1  0.750000  0.750000  0.247029  1
  Y  Y8  1  0.000000  0.500000  0.500000  1
  Y  Y9  1  0.750000  0.250000  0.752971  1
  Y  Y10  1  0.250000  0.250000  0.247029  1
  Y  Y11  1  0.500000  0.000000  0.500000  1
  Y  Y12  1  0.250000  0.750000  0.752971  1
  Zr  Zr13  1  0.000000  0.000000  0.000000  1
  Zr  Zr14  1  0.500000  0.500000  0.000000  1
  O  O15  1  0.725037  0.531190  0.257275  1
  O  O16  1  0.274963  0.468810  0.257275  1
  O  O17  1  0.000000  0.795497  0.000000  1
  O  O18  1  0.000000  0.204503  0.000000  1
  O  O19  1  0.000000  0.285885  0.500000  1
  O  O20  1  0.000000  0.714115  0.500000  1
  O  O21  1  0.725037  0.468810  0.742725  1
  O  O22  1  0.274963  0.531190  0.742725  1
  O  O23  1  0.225037  0.031190  0.257275  1
  O  O24  1  0.774963  0.968810  0.257275  1
  O  O25  1  0.500000  0.295497  0.000000  1
  O  O26  1  0.500000  0.704503  0.000000  1
  O  O27  1  0.500000  0.785885  0.500000  1
  O  O28  1  0.500000  0.214115  0.500000  1
  O  O29  1  0.225037  0.968810  0.742725  1
  O  O30  1  0.774963  0.031190  0.742725  1
