# generated using pymatgen
data_Li4Y3CrO8
_symmetry_space_group_name_H-M   'P 1'
_cell_length_a   5.88284272
_cell_length_b   5.88282827
_cell_length_c   11.77268721
_cell_angle_alpha   136.44545422
_cell_angle_beta   136.44568496
_cell_angle_gamma   63.23706726
_symmetry_Int_Tables_number   1
_chemical_formula_structural   Li4Y3CrO8
_chemical_formula_sum   'Li4 Y3 Cr1 O8'
_cell_volume   191.014652832
_cell_formula_units_Z   1
loop_
 _symmetry_equiv_pos_site_id
 _symmetry_equiv_pos_as_xyz
  1  'x, y, z'
loop_
 _atom_site_type_symbol
 _atom_site_label
 _atom_site_symmetry_multiplicity
 _atom_site_fract_x
 _atom_site_fract_y
 _atom_site_fract_z
 _atom_site_occupancy
  Li  Li1  1  0.247062  0.747037  0.747066  1
  Li  Li2  1  0.500046  0.499950  0.499999  1
  Li  Li3  1  0.252978  0.752952  0.252944  1
  Li  Li4  1  0.500031  0.499977  0.000004  1
  Y  Y5  1  0.000010  -0.000001  0.500003  1
  Y  Y6  1  0.758318  0.258303  0.758315  1
  Y  Y7  1  0.741692  0.241685  0.241683  1
  Cr  Cr8  1  0.000006  0.999954  0.999985  1
  O  O9  1  0.535038  0.020400  0.763136  1
  O  O10  1  0.224873  0.225055  0.500093  1
  O  O11  1  0.991215  0.505864  0.763125  1
  O  O12  1  0.494134  0.008791  0.236882  1
  O  O13  1  0.206584  0.206521  0.999974  1
  O  O14  1  0.774941  0.775133  0.499904  1
  O  O15  1  0.979605  0.464964  0.236867  1
  O  O16  1  0.793469  0.793412  0.000021  1
