# generated using pymatgen
data_Li4Y3VO8
_symmetry_space_group_name_H-M   'P 1'
_cell_length_a   6.16685368
_cell_length_b   10.15532224
_cell_length_c   6.17795863
_cell_angle_alpha   90.00000000
_cell_angle_beta   90.00000000
_cell_angle_gamma   90.00000000
_symmetry_Int_Tables_number   1
_chemical_formula_structural   Li4Y3VO8
_chemical_formula_sum   'Li8 Y6 V2 O16'
_cell_volume   386.90322411
_cell_formula_units_Z   2
loop_
 _symmetry_equiv_pos_site_id
 _symmetry_equiv_pos_as_xyz
  1  'x, y, z'
loop_
 _atom_site_type_symbol
 _atom_site_label
 _atom_site_symmetry_multiplicity
 _atom_site_fract_x
 _atom_site_fract_y
 _atom_site_fract_z
 _atom_site_occupancy
  Li  Li1  1  0.250000  0.250000  0.749572  1
  Li  Li2  1  0.000000  0.000000  0.500000  1
  Li  Li3  1  0.250000  0.750000  0.250428  1
  Li  Li4  1  0.000000  0.500000  0.000000  1
  Li  Li5  1  0.750000  0.750000  0.749572  1
  Li  Li6  1  0.500000  0.500000  0.500000  1
  Li  Li7  1  0.750000  0.250000  0.250428  1
  Li  Li8  1  0.500000  0.000000  0.000000  1
  Y  Y9  1  0.000000  0.500000  0.500000  1
  Y  Y10  1  0.250000  0.750000  0.756694  1
  Y  Y11  1  0.750000  0.750000  0.243306  1
  Y  Y12  1  0.500000  0.000000  0.500000  1
  Y  Y13  1  0.750000  0.250000  0.756694  1
  Y  Y14  1  0.250000  0.250000  0.243306  1
  V  V15  1  0.500000  0.500000  0.000000  1
  V  V16  1  0.000000  0.000000  0.000000  1
  O  O17  1  0.739863  0.483442  0.760535  1
  O  O18  1  0.000000  0.278061  0.500000  1
  O  O19  1  0.260137  0.516558  0.760535  1
  O  O20  1  0.260137  0.483442  0.239465  1
  O  O21  1  0.000000  0.788513  0.000000  1
  O  O22  1  0.000000  0.721939  0.500000  1
  O  O23  1  0.739863  0.516558  0.239465  1
  O  O24  1  0.000000  0.211487  0.000000  1
  O  O25  1  0.239863  0.983442  0.760535  1
  O  O26  1  0.500000  0.778061  0.500000  1
  O  O27  1  0.760137  0.016558  0.760535  1
  O  O28  1  0.760137  0.983442  0.239465  1
  O  O29  1  0.500000  0.288513  0.000000  1
  O  O30  1  0.500000  0.221939  0.500000  1
  O  O31  1  0.239863  0.016558  0.239465  1
  O  O32  1  0.500000  0.711487  0.000000  1
