# generated using pymatgen
data_Li4Y3CrO8
_symmetry_space_group_name_H-M   C222
_cell_length_a   6.16828702
_cell_length_b   10.01914413
_cell_length_c   6.18160828
_cell_angle_alpha   90.00000000
_cell_angle_beta   90.00000000
_cell_angle_gamma   90.00000000
_symmetry_Int_Tables_number   21
_chemical_formula_structural   Li4Y3CrO8
_chemical_formula_sum   'Li8 Y6 Cr2 O16'
_cell_volume   382.02930567
_cell_formula_units_Z   2
loop_
 _symmetry_equiv_pos_site_id
 _symmetry_equiv_pos_as_xyz
  1  'x, y, z'
  2  '-x, -y, z'
  3  'x, -y, -z'
  4  '-x, y, -z'
  5  'x+1/2, y+1/2, z'
  6  '-x+1/2, -y+1/2, z'
  7  'x+1/2, -y+1/2, -z'
  8  '-x+1/2, y+1/2, -z'
loop_
 _atom_site_type_symbol
 _atom_site_label
 _atom_site_symmetry_multiplicity
 _atom_site_fract_x
 _atom_site_fract_y
 _atom_site_fract_z
 _atom_site_occupancy
  Li  Li1  4  0.250000  0.250000  0.752920  1
  Li  Li2  2  0.000000  0.000000  0.500000  1
  Li  Li3  2  0.000000  0.500000  0.000000  1
  Y  Y4  4  0.250000  0.250000  0.258330  1
  Y  Y5  2  0.000000  0.000000  0.000000  1
  Cr  Cr6  2  0.000000  0.500000  0.500000  1
  O  O7  8  0.242707  0.485411  0.263151  1
  O  O8  4  0.000000  0.224877  0.000000  1
  O  O9  4  0.000000  0.293416  0.500000  1
