# generated using pymatgen
data_Li4Y3CrO8
_symmetry_space_group_name_H-M   'P 1'
_cell_length_a   6.16828702
_cell_length_b   10.01914413
_cell_length_c   6.18160828
_cell_angle_alpha   90.00000000
_cell_angle_beta   90.00000000
_cell_angle_gamma   90.00000000
_symmetry_Int_Tables_number   1
_chemical_formula_structural   Li4Y3CrO8
_chemical_formula_sum   'Li8 Y6 Cr2 O16'
_cell_volume   382.029305674
_cell_formula_units_Z   2
loop_
 _symmetry_equiv_pos_site_id
 _symmetry_equiv_pos_as_xyz
  1  'x, y, z'
loop_
 _atom_site_type_symbol
 _atom_site_label
 _atom_site_symmetry_multiplicity
 _atom_site_fract_x
 _atom_site_fract_y
 _atom_site_fract_z
 _atom_site_occupancy
  Li  Li1  1  0.750000  0.750000  0.252920  1
  Li  Li2  1  0.000000  0.500000  0.500000  1
  Li  Li3  1  0.750000  0.250000  0.747080  1
  Li  Li4  1  0.500000  0.500000  0.000000  1
  Li  Li5  1  0.250000  0.250000  0.252920  1
  Li  Li6  1  0.500000  0.000000  0.500000  1
  Li  Li7  1  0.250000  0.750000  0.747080  1
  Li  Li8  1  0.000000  0.000000  0.000000  1
  Y  Y9  1  0.500000  0.500000  0.500000  1
  Y  Y10  1  0.750000  0.250000  0.241670  1
  Y  Y11  1  0.250000  0.250000  0.758330  1
  Y  Y12  1  0.000000  0.000000  0.500000  1
  Y  Y13  1  0.250000  0.750000  0.241670  1
  Y  Y14  1  0.750000  0.750000  0.758330  1
  Cr  Cr15  1  0.000000  0.500000  0.000000  1
  Cr  Cr16  1  0.500000  0.000000  0.000000  1
  O  O17  1  0.242707  0.514589  0.236849  1
  O  O18  1  0.500000  0.724877  0.500000  1
  O  O19  1  0.757293  0.485411  0.236849  1
  O  O20  1  0.757293  0.514589  0.763151  1
  O  O21  1  0.500000  0.206584  0.000000  1
  O  O22  1  0.500000  0.275123  0.500000  1
  O  O23  1  0.242707  0.485411  0.763151  1
  O  O24  1  0.500000  0.793416  0.000000  1
  O  O25  1  0.742707  0.014589  0.236849  1
  O  O26  1  0.000000  0.224877  0.500000  1
  O  O27  1  0.257293  0.985411  0.236849  1
  O  O28  1  0.257293  0.014589  0.763151  1
  O  O29  1  0.000000  0.706584  0.000000  1
  O  O30  1  0.000000  0.775123  0.500000  1
  O  O31  1  0.742707  0.985411  0.763151  1
  O  O32  1  0.000000  0.293416  0.000000  1
