# generated using pymatgen
data_Li4Y3VO8
_symmetry_space_group_name_H-M   'P 1'
_cell_length_a   5.93968436
_cell_length_b   5.94142043
_cell_length_c   11.88452843
_cell_angle_alpha   136.88784352
_cell_angle_beta   136.91551779
_cell_angle_gamma   62.53671489
_symmetry_Int_Tables_number   1
_chemical_formula_structural   Li4Y3VO8
_chemical_formula_sum   'Li4 Y3 V1 O8'
_cell_volume   193.451527001
_cell_formula_units_Z   1
loop_
 _symmetry_equiv_pos_site_id
 _symmetry_equiv_pos_as_xyz
  1  'x, y, z'
loop_
 _atom_site_type_symbol
 _atom_site_label
 _atom_site_symmetry_multiplicity
 _atom_site_fract_x
 _atom_site_fract_y
 _atom_site_fract_z
 _atom_site_occupancy
  Li  Li1  1  0.250529  0.750771  0.750788  1
  Li  Li2  1  0.500196  0.500171  0.500271  1
  Li  Li3  1  0.249326  0.749521  0.249299  1
  Li  Li4  1  0.499631  0.500028  0.999925  1
  Y  Y5  1  0.000330  0.000267  0.500337  1
  Y  Y6  1  0.757964  0.258398  0.757910  1
  Y  Y7  1  0.742762  0.243335  0.243064  1
  V  V8  1  0.000705  0.001475  0.001216  1
  O  O9  1  0.537935  0.018432  0.761751  1
  O  O10  1  0.221964  0.221355  0.499847  1
  O  O11  1  0.986646  0.503713  0.761511  1
  O  O12  1  0.494312  0.011424  0.236398  1
  O  O13  1  0.211597  0.211163  0.000019  1
  O  O14  1  0.777914  0.778505  0.500031  1
  O  O15  1  0.979427  0.461864  0.237181  1
  O  O16  1  0.788761  0.789576  0.000452  1
