# generated using pymatgen
data_MoS2
_symmetry_space_group_name_H-M   'P 1'
_cell_length_a   3.19064344
_cell_length_b   3.19064344
_cell_length_c   21.31819994
_cell_angle_alpha   90.00000000
_cell_angle_beta   90.00000000
_cell_angle_gamma   120.00000000
_symmetry_Int_Tables_number   1
_chemical_formula_structural   MoS2
_chemical_formula_sum   'Mo3 S6'
_cell_volume   187.948000557
_cell_formula_units_Z   3
loop_
 _symmetry_equiv_pos_site_id
 _symmetry_equiv_pos_as_xyz
  1  'x, y, z'
loop_
 _atom_site_type_symbol
 _atom_site_label
 _atom_site_symmetry_multiplicity
 _atom_site_fract_x
 _atom_site_fract_y
 _atom_site_fract_z
 _atom_site_occupancy
  Mo  Mo1  1  0.666667  0.333333  0.333110  1
  Mo  Mo2  1  0.333333  0.666667  0.666444  1
  Mo  Mo3  1  0.000000  0.000000  0.999777  1
  S  S4  1  0.333333  0.666667  0.073202  1
  S  S5  1  0.000000  0.000000  0.259688  1
  S  S6  1  0.000000  0.000000  0.406535  1
  S  S7  1  0.666667  0.333333  0.593021  1
  S  S8  1  0.666667  0.333333  0.739869  1
  S  S9  1  0.333333  0.666667  0.926354  1
