# generated using pymatgen
data_MoS2
_symmetry_space_group_name_H-M   'P 1'
_cell_length_a   3.19031539
_cell_length_b   3.19031539
_cell_length_c   39.75800900
_cell_angle_alpha   90.00000000
_cell_angle_beta   90.00000000
_cell_angle_gamma   120.00000000
_symmetry_Int_Tables_number   1
_chemical_formula_structural   MoS2
_chemical_formula_sum   'Mo4 S8'
_cell_volume   350.44712156
_cell_formula_units_Z   4
loop_
 _symmetry_equiv_pos_site_id
 _symmetry_equiv_pos_as_xyz
  1  'x, y, z'
loop_
 _atom_site_type_symbol
 _atom_site_label
 _atom_site_symmetry_multiplicity
 _atom_site_fract_x
 _atom_site_fract_y
 _atom_site_fract_z
 _atom_site_occupancy
  Mo  Mo1  1  0.666667  0.333333  0.593560  1.0
  Mo  Mo2  1  0.666667  0.333333  0.219320  1.0
  Mo  Mo3  1  0.333333  0.666667  0.780680  1.0
  Mo  Mo4  1  0.333333  0.666667  0.406440  1.0
  S  S5  1  0.333333  0.666667  0.554199  1.0
  S  S6  1  0.333333  0.666667  0.179960  1.0
  S  S7  1  0.666667  0.333333  0.741319  1.0
  S  S8  1  0.666667  0.333333  0.367080  1.0
  S  S9  1  0.333333  0.666667  0.632920  1.0
  S  S10  1  0.333333  0.666667  0.258681  1.0
  S  S11  1  0.666667  0.333333  0.820040  1.0
  S  S12  1  0.666667  0.333333  0.445801  1.0
