# generated using pymatgen
data_YCu7O12
_symmetry_space_group_name_H-M   'P 1'
_cell_length_a   7.34398212
_cell_length_b   7.34398212
_cell_length_c   7.34398212
_cell_angle_alpha   90.00000000
_cell_angle_beta   90.00000000
_cell_angle_gamma   90.00000000
_symmetry_Int_Tables_number   1
_chemical_formula_structural   YCu7O12
_chemical_formula_sum   'Y2 Cu14 O24'
_cell_volume   396.090870931
_cell_formula_units_Z   2
loop_
 _symmetry_equiv_pos_site_id
 _symmetry_equiv_pos_as_xyz
  1  'x, y, z'
loop_
 _atom_site_type_symbol
 _atom_site_label
 _atom_site_symmetry_multiplicity
 _atom_site_fract_x
 _atom_site_fract_y
 _atom_site_fract_z
 _atom_site_occupancy
  Y  Y1  1  0.000000  0.000000  0.000000  1
  Y  Y2  1  0.500000  0.500000  0.500000  1
  Cu  Cu3  1  0.250000  0.750000  0.250000  1
  Cu  Cu4  1  0.750000  0.750000  0.250000  1
  Cu  Cu5  1  0.750000  0.750000  0.750000  1
  Cu  Cu6  1  0.250000  0.750000  0.750000  1
  Cu  Cu7  1  0.500000  0.000000  0.000000  1
  Cu  Cu8  1  0.000000  0.500000  0.000000  1
  Cu  Cu9  1  0.000000  0.000000  0.500000  1
  Cu  Cu10  1  0.750000  0.250000  0.750000  1
  Cu  Cu11  1  0.250000  0.250000  0.750000  1
  Cu  Cu12  1  0.250000  0.250000  0.250000  1
  Cu  Cu13  1  0.750000  0.250000  0.250000  1
  Cu  Cu14  1  0.000000  0.500000  0.500000  1
  Cu  Cu15  1  0.500000  0.000000  0.500000  1
  Cu  Cu16  1  0.500000  0.500000  0.000000  1
  O  O17  1  0.831583  0.000000  0.693871  1
  O  O18  1  0.168417  0.000000  0.306129  1
  O  O19  1  0.831583  0.000000  0.306129  1
  O  O20  1  0.000000  0.693871  0.831583  1
  O  O21  1  0.306129  0.831583  0.000000  1
  O  O22  1  0.306129  0.168417  0.000000  1
  O  O23  1  0.000000  0.306129  0.831583  1
  O  O24  1  0.693871  0.168417  0.000000  1
  O  O25  1  0.168417  0.000000  0.693871  1
  O  O26  1  0.000000  0.306129  0.168417  1
  O  O27  1  0.693871  0.831583  0.000000  1
  O  O28  1  0.000000  0.693871  0.168417  1
  O  O29  1  0.331583  0.500000  0.193871  1
  O  O30  1  0.668417  0.500000  0.806129  1
  O  O31  1  0.331583  0.500000  0.806129  1
  O  O32  1  0.500000  0.193871  0.331583  1
  O  O33  1  0.806129  0.331583  0.500000  1
  O  O34  1  0.806129  0.668417  0.500000  1
  O  O35  1  0.500000  0.806129  0.331583  1
  O  O36  1  0.193871  0.668417  0.500000  1
  O  O37  1  0.668417  0.500000  0.193871  1
  O  O38  1  0.500000  0.806129  0.668417  1
  O  O39  1  0.193871  0.331583  0.500000  1
  O  O40  1  0.500000  0.193871  0.668417  1
